Version 4
SHEET 1 1080 680
WIRE -224 32 -464 32
WIRE -16 32 -144 32
WIRE 80 32 -16 32
WIRE 256 32 80 32
WIRE 416 32 256 32
WIRE 528 32 416 32
WIRE 688 32 528 32
WIRE 896 48 832 48
WIRE 688 64 624 64
WIRE -464 96 -464 32
WIRE 80 96 80 32
WIRE 256 96 256 32
WIRE -144 112 -144 32
WIRE -16 112 -16 32
WIRE -224 128 -224 32
WIRE -192 128 -224 128
WIRE 416 128 416 32
WIRE 624 144 624 64
WIRE -192 176 -224 176
WIRE 80 192 80 160
WIRE 256 192 256 160
WIRE -464 240 -464 176
WIRE -224 240 -224 176
WIRE -224 240 -464 240
WIRE -144 320 -144 192
WIRE -16 320 -16 192
WIRE -16 320 -144 320
WIRE 80 320 80 256
WIRE 80 320 -16 320
WIRE 256 320 256 256
WIRE 256 320 80 320
WIRE 416 320 416 192
WIRE 416 320 256 320
WIRE 624 320 624 224
WIRE 624 320 416 320
WIRE -144 352 -144 320
WIRE 624 352 624 320
WIRE 624 464 624 432
WIRE 688 464 624 464
WIRE 896 480 832 480
WIRE 528 496 528 32
WIRE 688 496 528 496
FLAG -144 352 0
FLAG 896 48 SyncP
FLAG 896 480 SyncN
SYMBOL g -144 96 R0
WINDOW 0 45 36 Left 2
WINDOW 3 46 61 Left 2
SYMATTR InstName G1
SYMATTR Value 1m
SYMBOL res -32 96 R0
SYMATTR InstName R1
SYMATTR Value 100
SYMBOL diode 96 256 R180
WINDOW 0 -40 49 Left 2
WINDOW 3 -57 24 Left 2
SYMATTR InstName D1
SYMATTR Value DZ1
SYMBOL cap 400 128 R0
WINDOW 0 46 22 Left 2
WINDOW 3 44 47 Left 2
SYMATTR InstName C1
SYMATTR Value 100n
SYMBOL voltage 624 128 R0
WINDOW 0 45 37 Left 2
WINDOW 3 43 66 Left 2
SYMATTR InstName V1
SYMATTR Value 250m
SYMBOL voltage 624 448 M180
WINDOW 0 53 70 Left 2
WINDOW 3 49 42 Left 2
SYMATTR InstName V2
SYMATTR Value -250m
SYMBOL diode 64 96 R0
WINDOW 0 42 16 Left 2
WINDOW 3 43 44 Left 2
SYMATTR InstName D2
SYMATTR Value DCLP
SYMBOL diode 272 160 R180
WINDOW 0 -41 48 Left 2
WINDOW 3 -69 24 Left 2
SYMATTR InstName D3
SYMATTR Value DCLP
SYMBOL diode 240 192 R0
WINDOW 0 42 17 Left 2
WINDOW 3 42 40 Left 2
SYMATTR InstName D4
SYMATTR Value DZ1
SYMBOL Ompamp 752 48 R0
SYMATTR InstName X3
SYMATTR SpiceLine VHIGH=5 VLOW=100m VHYS=10m
SYMBOL Ompamp 752 480 R0
SYMATTR InstName X4
SYMATTR SpiceLine VHIGH=5 VLOW=100m VHYS=10m
SYMBOL voltage -464 80 R0
WINDOW 123 0 0 Left 0
WINDOW 39 0 0 Left 0
SYMATTR InstName V3
SYMATTR Value SINE(0 311 50)
TEXT -312 440 Left 2 !.model DCLP D TT=100n Rs=100m Cjo=50p N=0.6\n.model DZ1 D tt=100n Rs=10m N=100m BV=10\n.model DZ2 D tt=100n Rs=10m N=100m BV=5\n.model TOFSW2 SW (Ron=10 Roff=100Meg Vt=2 Vh=1)\n*
TEXT -496 576 Left 2 !.tran 100m
