Version 4
SHEET 1 972 680
WIRE 112 -112 -80 -112
WIRE -80 -80 -80 -112
WIRE -496 -64 -576 -64
WIRE -240 -64 -448 -64
WIRE -128 -64 -240 -64
WIRE 416 -64 256 -64
WIRE 544 -64 416 -64
WIRE -448 -16 -448 -64
WIRE -128 -16 -144 -16
WIRE -496 0 -496 -64
WIRE -144 32 -144 -16
WIRE -80 32 -80 0
WIRE -80 32 -144 32
WIRE -80 48 -80 32
WIRE 416 48 416 -64
WIRE -240 64 -240 -64
WIRE 256 64 256 -64
WIRE -496 128 -496 48
WIRE -448 128 -448 64
WIRE -448 128 -496 128
WIRE -448 160 -448 128
WIRE -64 208 -144 208
WIRE 160 208 80 208
WIRE -144 240 -144 208
WIRE 160 240 160 208
WIRE -240 256 -240 176
WIRE -192 256 -240 256
WIRE 256 256 256 176
WIRE 256 256 208 256
WIRE 416 272 416 128
WIRE -192 304 -208 304
WIRE 224 304 208 304
WIRE -208 336 -208 304
WIRE -144 336 -144 320
WIRE -144 336 -208 336
WIRE 160 336 160 320
WIRE 224 336 224 304
WIRE 224 336 160 336
WIRE -144 352 -144 336
WIRE 160 352 160 336
WIRE -240 368 -240 256
WIRE 256 368 256 256
WIRE -64 480 -144 480
WIRE 160 480 80 480
WIRE -144 512 -144 480
WIRE 160 512 160 480
WIRE -240 528 -240 480
WIRE -192 528 -240 528
WIRE 256 528 256 480
WIRE 256 528 208 528
WIRE -192 576 -208 576
WIRE 224 576 208 576
WIRE -208 608 -208 576
WIRE -144 608 -144 592
WIRE -144 608 -208 608
WIRE 160 608 160 592
WIRE 224 608 224 576
WIRE 224 608 160 608
WIRE -144 624 -144 608
WIRE 160 624 160 608
FLAG -144 352 0
FLAG -144 624 0
FLAG -64 208 Na1
FLAG -64 480 Na2
FLAG 160 352 0
FLAG 160 624 0
FLAG 80 208 Nb1
FLAG 80 480 Nb2
FLAG -80 48 0
FLAG 112 -112 Na0
FLAG 416 272 0
FLAG 544 -64 OUT
IOPIN 544 -64 Out
FLAG -576 -64 IN
IOPIN -576 -64 In
FLAG -448 160 0
SYMBOL e -144 224 R0
WINDOW 0 47 43 Left 2
WINDOW 3 45 75 Left 2
SYMATTR InstName E1
SYMATTR Value {a1}
SYMBOL e -144 496 R0
WINDOW 0 47 43 Left 2
WINDOW 3 45 75 Left 2
SYMATTR InstName E2
SYMATTR Value {a2}
SYMBOL e 160 224 M0
WINDOW 0 47 43 Left 2
WINDOW 3 45 75 Left 2
SYMATTR InstName E3
SYMATTR Value {b1}
SYMBOL e 160 496 M0
WINDOW 0 47 43 Left 2
WINDOW 3 45 75 Left 2
SYMATTR InstName E4
SYMATTR Value {b2}
SYMBOL e -80 -96 R0
WINDOW 0 45 34 Left 2
WINDOW 3 43 64 Left 2
SYMATTR InstName E5
SYMATTR Value {a0}
SYMBOL bv 416 32 R0
WINDOW 0 47 34 Left 2
WINDOW 3 49 70 Left 2
SYMATTR InstName B1
SYMATTR Value V=V(Na2)-V(Nb2)+V(Na1)-V(Nb1)+V(Na0)
SYMBOL e -448 -32 R0
WINDOW 0 45 34 Left 2
WINDOW 3 43 64 Left 2
SYMATTR InstName E6
SYMATTR Value 1
SYMBOL signal_delay_block -240 112 R90
WINDOW 39 8 4 Bottom 2
SYMATTR SpiceLine Td={Td}
SYMATTR InstName X1
SYMBOL signal_delay_block 256 416 R90
WINDOW 39 8 4 Bottom 2
SYMATTR SpiceLine Td={Td}
SYMATTR InstName X3
SYMBOL signal_delay_block 256 112 R90
WINDOW 39 8 4 Bottom 2
SYMATTR SpiceLine Td={Td}
SYMATTR InstName X4
SYMBOL signal_delay_block -240 416 R90
WINDOW 39 8 4 Bottom 2
SYMATTR SpiceLine Td={Td}
SYMATTR InstName X2
TEXT -656 648 Left 2 !.tran 1m
